 &PTRACERS_PARM01
 PTRACERS_numInUse=36,
 PTRACERS_Iter0= 0,
#
 PTRACERS_advScheme=36*33,
 PTRACERS_diffKh=36*0.E3,
 PTRACERS_diffKr=36*1.E-5,
 PTRACERS_useGMRedi=36*.TRUE.,
 PTRACERS_useKPP=36*.TRUE.,
#
 PTRACERS_names(1)= 'DIC',
 PTRACERS_names(2)= 'NH4',
 PTRACERS_names(3)= 'NO2',
 PTRACERS_names(4)= 'NO3',
 PTRACERS_names(5)= 'PO4',
 PTRACERS_names(6)= 'SiO2',
 PTRACERS_names(7)= 'HOOH',
 PTRACERS_names(8)= 'FeT',
 PTRACERS_names(9)= 'DOC',
 PTRACERS_names(10)= 'DON',
 PTRACERS_names(11)= 'DOP',
 PTRACERS_names(12)= 'DOFe',
 PTRACERS_names(13)= 'POC',
 PTRACERS_names(14)= 'PON',
 PTRACERS_names(15)= 'POP',
 PTRACERS_names(16)= 'POSi',
 PTRACERS_names(17)= 'POFe',
 PTRACERS_names(18)= 'PIC',
 PTRACERS_names(19)= 'ALK',
 PTRACERS_names(20)= 'O2',
 PTRACERS_names(21)= 'c01',
 PTRACERS_names(22)= 'c02',
 PTRACERS_names(23)= 'c03',
 PTRACERS_names(24)= 'c04',
 PTRACERS_names(25)= 'c05',
 PTRACERS_names(26)= 'c06',
 PTRACERS_names(27)= 'c07',
 PTRACERS_names(28)= 'c08',
 PTRACERS_names(29)= 'c09',
 PTRACERS_names(30)= 'c10',
 PTRACERS_names(31)= 'Chl1',
 PTRACERS_names(32)= 'Chl2',
 PTRACERS_names(33)= 'Chl3',
 PTRACERS_names(34)= 'Chl4',
 PTRACERS_names(35)= 'Chl5',
 PTRACERS_names(36)= 'Chl6',
 PTRACERS_long_names(21)= 'Diatom01',
 PTRACERS_long_names(22)= 'Euk01',
 PTRACERS_long_names(23)= 'Syn01',
 PTRACERS_long_names(24)= 'Pro01',
 PTRACERS_long_names(25)= 'Tricho01',
 PTRACERS_long_names(26)= 'Cocco01',
 PTRACERS_long_names(27)= 'Zoo01',
 PTRACERS_long_names(28)= 'Zoo02',
 PTRACERS_long_names(29)= 'Zoo03',
 PTRACERS_long_names(30)= 'Zoo04',
 PTRACERS_units(1)='mmol C/m^3',
 PTRACERS_units(2)='mmol N/m^3',
 PTRACERS_units(3)='mmol N/m^3',
 PTRACERS_units(4)='mmol N/m^3',
 PTRACERS_units(5)='mmol P/m^3',
 PTRACERS_units(6)='mmol Si/m^3',
 PTRACERS_units(7)='mmol HOOH/m^3',
 PTRACERS_units(8)='mmol Fe/m^3',
 PTRACERS_units(9)='mmol C/m^3',
 PTRACERS_units(10)='mmol N/m^3',
 PTRACERS_units(11)='mmol P/m^3',
 PTRACERS_units(12)='mmol Fe/m^3',
 PTRACERS_units(13)='mmol C/m^3',
 PTRACERS_units(14)='mmol N/m^3',
 PTRACERS_units(15)='mmol P/m^3',
 PTRACERS_units(16)='mmol Si/m^3',
 PTRACERS_units(17)='mmol Fe/m^3',
 PTRACERS_units(18)='mmol C/m^3',
 PTRACERS_units(19)='mmol eq/m^3',
 PTRACERS_units(20)='mmol O/m^3',
 PTRACERS_units(21:30)=10*'mmol C/m^3',
 PTRACERS_units(31:36)='mg/m^3',
 PTRACERS_initialFile(1)='/lustre/isaac/proj/UTK0105/Darwin/data/eccov3_R8/glodap_tco2_ann-3d.bin',
 PTRACERS_initialFile(2)='/lustre/isaac/proj/UTK0105/Darwin/data/DARWIN_ECCO_run17_R8/nh4_y2000.data',
 PTRACERS_initialFile(3)='/lustre/isaac/proj/UTK0105/Darwin/data/DARWIN_ECCO_run17_R8/no2_y2000.data',
 PTRACERS_initialFile(4)='/lustre/isaac/proj/UTK0105/Darwin/data/eccov3_R8/lev01_nitrate_ann-3d.bin',
 PTRACERS_initialFile(5)='/lustre/isaac/proj/UTK0105/Darwin/data/eccov3_R8/lev01_phosphate_ann-3d.bin',
 PTRACERS_initialFile(6)='/lustre/isaac/proj/UTK0105/Darwin/data/eccov3_R8/lev01_silicate_ann-3d.bin ',
 PTRACERS_initialFile(7)='/lustre/isaac/proj/UTK0105/Darwin/data/eccov3_R8/zero.bin',
 PTRACERS_initialFile(8)='/lustre/isaac/proj/UTK0105/Darwin/data/DARWIN_ECCO_run17_R8/fet_y2000.data',
 PTRACERS_initialFile(9)='/lustre/isaac/proj/UTK0105/Darwin/data/DARWIN_ECCO_run17_R8/doc_y2000.data',
 PTRACERS_initialFile(10)='/lustre/isaac/proj/UTK0105/Darwin/data/DARWIN_ECCO_run17_R8/don_y2000.data',
 PTRACERS_initialFile(11)='/lustre/isaac/proj/UTK0105/Darwin/data/DARWIN_ECCO_run17_R8/dop_y2000.data',
 PTRACERS_initialFile(12)='/lustre/isaac/proj/UTK0105/Darwin/data/DARWIN_ECCO_run17_R8/dofe_y2000.data',
 PTRACERS_initialFile(13)='/lustre/isaac/proj/UTK0105/Darwin/data/DARWIN_ECCO_run17_R8/poc_y2000.data',
 PTRACERS_initialFile(14)='/lustre/isaac/proj/UTK0105/Darwin/data/DARWIN_ECCO_run17_R8/pon_y2000.data',
 PTRACERS_initialFile(15)='/lustre/isaac/proj/UTK0105/Darwin/data/DARWIN_ECCO_run17_R8/pop_y2000.data',
 PTRACERS_initialFile(16)='/lustre/isaac/proj/UTK0105/Darwin/data/DARWIN_ECCO_run17_R8/posi_y2000.data',
 PTRACERS_initialFile(17)='/lustre/isaac/proj/UTK0105/Darwin/data/DARWIN_ECCO_run17_R8/pofe_y2000.data',
 PTRACERS_initialFile(18)='/lustre/isaac/proj/UTK0105/Darwin/data/DARWIN_ECCO_run17_R8/pic_y2000.data',
 PTRACERS_initialFile(19)='/lustre/isaac/proj/UTK0105/Darwin/data/eccov3_R8/glodap_alk_ann-3d.bin',
 PTRACERS_initialFile(20)='/lustre/isaac/proj/UTK0105/Darwin/data/eccov3_R8/lev01_oxygen_micromolar_ann-3d.bin',
 PTRACERS_initialFile(21)='/lustre/isaac/proj/UTK0105/Darwin/data/DARWIN_ECCO_run17_R8/phy_6species_x120_y2000.data',
 PTRACERS_initialFile(22)='/lustre/isaac/proj/UTK0105/Darwin/data/DARWIN_ECCO_run17_R8/phy_6species_x120_y2000.data',
 PTRACERS_initialFile(23)='/lustre/isaac/proj/UTK0105/Darwin/data/DARWIN_ECCO_run17_R8/phy_6species_x120_y2000.data',
 PTRACERS_initialFile(24)='/lustre/isaac/proj/UTK0105/Darwin/data/DARWIN_ECCO_run17_R8/phy_6species_x120_y2000.data',
 PTRACERS_initialFile(25)='/lustre/isaac/proj/UTK0105/Darwin/data/DARWIN_ECCO_run17_R8/phy_6species_x120_y2000.data',
 PTRACERS_initialFile(26)='/lustre/isaac/proj/UTK0105/Darwin/data/DARWIN_ECCO_run17_R8/phy_6species_x120_y2000.data',
 PTRACERS_initialFile(27:30)=4*'/lustre/isaac/proj/UTK0105/Darwin/data/DARWIN_ECCO_run17_R8/zoop_x120_y2000.data',
 PTRACERS_initialFile(31:36)=6*' ',
 &
